Version 4
SHEET 1 1264 680
WIRE 384 -208 144 -208
WIRE 560 -208 384 -208
WIRE 560 -192 560 -208
WIRE 560 -80 560 -112
WIRE 384 -32 384 -208
WIRE 144 16 144 -208
WIRE 384 80 384 48
WIRE 576 80 384 80
WIRE 384 112 384 80
WIRE 576 128 576 80
WIRE -16 160 -112 160
WIRE 144 160 144 96
WIRE 144 160 48 160
WIRE 320 160 144 160
WIRE 144 208 144 160
WIRE 384 256 384 208
WIRE 576 272 576 192
WIRE -112 288 -112 240
WIRE 144 320 144 288
WIRE 384 368 384 336
FLAG -112 288 0
FLAG 144 320 0
FLAG 384 368 0
FLAG 560 -80 0
FLAG 576 272 0
SYMBOL cap 48 144 R90
WINDOW 0 0 32 VBottom 2
WINDOW 3 32 32 VTop 2
SYMATTR InstName C1
SYMATTR Value 5.7µ
SYMBOL voltage -112 144 R0
WINDOW 3 36 96 Left 2
WINDOW 123 36 124 Left 2
WINDOW 39 0 0 Left 2
SYMATTR InstName V1
SYMATTR Value SINE(0 0.84 1000)
SYMATTR Value2 AC 1 0
SYMATTR SpiceLine ""
SYMBOL res 128 0 R0
SYMATTR InstName R1
SYMATTR Value 1.2k
SYMBOL res 128 192 R0
SYMATTR InstName R2
SYMATTR Value 220
SYMATTR SpiceLine ""
SYMBOL npn 320 112 R0
SYMATTR InstName Q1
SYMATTR Value 2N3904
SYMBOL res 368 -48 R0
SYMATTR InstName RC
SYMATTR Value 515
SYMBOL res 368 240 R0
SYMATTR InstName RE
SYMATTR Value 100
SYMBOL cap 560 128 R0
SYMATTR InstName C2
SYMATTR Value 20.6n
SYMBOL voltage 560 -208 R0
SYMATTR InstName Vcc
SYMATTR Value 9
TEXT 118 392 Left 2 !;tran 0 0.01 0 0.001
TEXT -112 400 Left 2 !.ac dec 10 10 1Meg
